GDP
 OpenBabel02242508143D

 40 42  0  0  0  0  0  0  0  0999 V2000
   26.7459   -1.5124    9.6262 P   0  0  2  0  0  0  0  0  0  0  0  0
   29.6147   -1.2417    9.4174 P   0  0  0  0  0  0  0  0  0  0  0  0
   25.5850   -0.3923    7.5449 C   0  0  0  0  0  0  0  0  0  0  0  0
   25.7032   -1.5317    8.4249 O   0  0  0  0  0  0  0  0  0  0  0  0
   24.2098   -0.3891    6.9215 C   0  0  1  0  0  0  0  0  0  0  0  0
   24.0454   -1.5831    6.1227 O   0  0  0  0  0  0  0  0  0  0  0  0
   23.0312   -0.3667    7.8987 C   0  0  1  0  0  0  0  0  0  0  0  0
   21.9681    0.4302    7.3852 O   0  0  0  0  0  0  0  0  0  0  0  0
   22.6548   -1.8475    7.9951 C   0  0  1  0  0  0  0  0  0  0  0  0
   21.3221   -2.1387    8.3968 O   0  0  0  0  0  0  0  0  0  0  0  0
   22.9050   -2.2954    6.5626 C   0  0  2  0  0  0  0  0  0  0  0  0
   21.5670   -6.6398    4.2658 N   0  0  0  0  0  0  0  0  0  0  0  0
   26.6942   -2.8358   10.3711 O   0  0  0  0  0  0  0  0  0  0  0  0
   30.4984   -2.0784    8.5533 O   0  0  0  0  0  0  0  0  0  0  0  0
   21.0891   -5.3711    4.0723 C   0  0  0  0  0  0  0  0  0  0  0  0
   20.1338   -5.2153    3.1523 N   0  0  0  0  0  0  0  0  0  0  0  0
   26.5865   -0.3404   10.5107 O   0  5  0  0  0  0  0  0  0  0  0  0
   29.5692   -1.7598   10.8543 O   0  5  0  0  0  0  0  0  0  0  0  0
   21.5362   -4.3108    4.7441 N   0  0  0  0  0  0  0  0  0  0  0  0
   28.1343   -1.4079    8.8557 O   0  0  0  0  0  0  0  0  0  0  0  0
   29.9586    0.2133    9.3450 O   0  5  0  0  0  0  0  0  0  0  0  0
   22.5213   -4.6188    5.6192 C   0  0  0  0  0  0  0  0  0  0  0  0
   23.0762   -5.8580    5.8782 C   0  0  0  0  0  0  0  0  0  0  0  0
   22.5704   -6.9865    5.1546 C   0  0  0  0  0  0  0  0  0  0  0  0
   22.9571   -8.1481    5.2329 O   0  0  0  0  0  0  0  0  0  0  0  0
   24.0671   -5.7552    6.8386 N   0  0  0  0  0  0  0  0  0  0  0  0
   24.0887   -4.4805    7.1399 C   0  0  0  0  0  0  0  0  0  0  0  0
   23.1739   -3.7362    6.4397 N   0  0  0  0  0  0  0  0  0  0  0  0
   26.3266   -0.4550    6.7761 H   0  0  0  0  0  0  0  0  0  0  0  0
   25.7300    0.5096    8.1020 H   0  0  0  0  0  0  0  0  0  0  0  0
   24.1791    0.5227    6.3624 H   0  0  0  0  0  0  0  0  0  0  0  0
   23.2578    0.0636    8.8518 H   0  0  0  0  0  0  0  0  0  0  0  0
   21.7059    0.0964    6.5130 H   0  0  0  0  0  0  0  0  0  0  0  0
   23.2136   -2.3440    8.7607 H   0  0  0  0  0  0  0  0  0  0  0  0
   20.7003   -1.7358    7.7707 H   0  0  0  0  0  0  0  0  0  0  0  0
   22.0280   -2.1021    5.9808 H   0  0  0  0  0  0  0  0  0  0  0  0
   21.1655   -7.3622    3.7308 H   0  0  0  0  0  0  0  0  0  0  0  0
   19.7996   -5.9951    2.6528 H   0  0  0  0  0  0  0  0  0  0  0  0
   19.7638   -4.3207    2.9735 H   0  0  0  0  0  0  0  0  0  0  0  0
   24.7324   -4.0752    7.8373 H   0  0  0  0  0  0  0  0  0  0  0  0
  1  4  1  0  0  0  0
  1 13  2  1  0  0  0
  1 17  1  0  0  0  0
  1 20  1  0  0  0  0
  2 14  2  0  0  0  0
  2 18  1  0  0  0  0
  2 20  1  0  0  0  0
  2 21  1  0  0  0  0
  3  4  1  0  0  0  0
  3  5  1  0  0  0  0
  3 29  1  0  0  0  0
  3 30  1  0  0  0  0
  5  6  1  0  0  0  0
  5  7  1  0  0  0  0
  5 31  1  6  0  0  0
  6 11  1  0  0  0  0
  7  8  1  0  0  0  0
  7  9  1  0  0  0  0
  7 32  1  1  0  0  0
  8 33  1  0  0  0  0
  9 10  1  0  0  0  0
  9 11  1  0  0  0  0
  9 34  1  1  0  0  0
 10 35  1  0  0  0  0
 11 28  1  0  0  0  0
 11 36  1  6  0  0  0
 12 15  1  0  0  0  0
 12 24  1  0  0  0  0
 12 37  1  0  0  0  0
 15 16  1  0  0  0  0
 15 19  2  0  0  0  0
 16 38  1  0  0  0  0
 16 39  1  0  0  0  0
 19 22  1  0  0  0  0
 22 23  2  0  0  0  0
 22 28  1  0  0  0  0
 23 24  1  0  0  0  0
 23 26  1  0  0  0  0
 24 25  2  0  0  0  0
 26 27  2  0  0  0  0
 27 28  1  0  0  0  0
 27 40  1  0  0  0  0
M  CHG  3  17  -1  18  -1  21  -1
M  END
$$$$
